$$  GRID Data
$$
GRID         761        3365.642719.7022 720.099
GRID         762         3369.84720.5057710.3526
GRID         763         3329.69 714.008811.8798
GRID         764        3323.002714.2816809.7628
GRID         765        3266.978610.41531168.714
GRID         766        3267.863613.32121159.697
GRID         767         3189.49593.48821212.011
GRID         768        3216.519615.95231152.754
GRID         769        3167.824558.54261300.262
GRID         770        3210.272615.95231152.754
GRID         771        3158.467558.80921300.236
GRID         772        3236.731 630.5651106.442
GRID         773        3207.519613.49191160.389
GRID         774        3204.683610.67231168.479
GRID         775        3201.769607.3855  1176.8
GRID         776        3176.134578.74141249.439
GRID         780        3198.862603.99581185.384
GRID         781        3172.772574.82571259.386
GRID         782        3195.868600.54531194.124
GRID         783        3192.707597.04281202.999
$ ... 13862 like lines cut
$HMCOMP ID               7664800 7664800       4
CQUAD4         1 7664800   21580  512569  512566  512446
CQUAD4        13 7664800   21744  512569  512568   21742
CQUAD4        18 7664800  512440  512567  512568   21579
CQUAD4        23 7664800  512432  512431  512567   21544
CQUAD4       891 7760001 1833021     762     761 1833017
CQUAD4       892 7760001     762    6149 1833043     761
CQUAD4       893 7760001 1833046     762 1833021 1833024
CQUAD4       894 7760001    6146 1833020     761 1833043
CQUAD4       895 7760001     761 1833020 1833012 1833017
CQUAD4       896 7760001 1832982     763    6155 1832981
CQUAD4       897 7760001 1832993     764     763 1832986
CQUAD4       898 7760001 1833279     766     765 1832511
CQUAD4       899 7764600  882827     776     781  882831
CQUAD4       900 7760001 1833285     785     766 1833279
CQUAD4       901 7764600  882831     781     784  882836
CQUAD4       903 7764600     786  882818  882813     767
CQUAD4       905 7764600     782     783  882807  882804
CQUAD4       907 7764600     786     788  882821  882818
CQUAD4       911 7764600  882795     773     774  903231
CQUAD4       912 7764600     773  882795     768     770
$ ... 7 like lines cut
CTRIA3      1207 7764200    1182    1199    1200
CQUAD4      1208 7764200 1837187 1837195 1837192 1837183
CQUAD4      1209 7764200    1191 1835776 1836166    1190
CTRIA3      1210 7764200 1837561    1179    1183
CQUAD4      1211 7764200 1837171    1152    1172 1837179
CQUAD4      1212 7764200    1167    1177    1173    1168
CQUAD4      1213 7764200    1173    1210    1152    1168
CQUAD4      1214 7764200 1837231    1139    1178    1201
CQUAD4      1215 7764200    1190 1836166 1837595    1189
CQUAD4      1216 7764200 1835839    1167 1835819    1203
CTRIA3      1217 7764200    1177    1167 1835839
CQUAD4      1218 7764200 1836214    1131    1130 1837582
CQUAD4      1219 7764200 1837210 1837204    1132 1837215
CQUAD4      1220 7764200    1132 1837194 1837198 1837208
CQUAD4      1221 7764200 1837221    1136 1837210    1134
CQUAD4      1222 7764200    1173    1166 1837181    1210
CTRIA3      1223 7764200 1837205 1837195    1136
CQUAD4      1224 7764200 1837582    1130 1837548    1138
CQUAD4      1225 7764200 1837553    1138    1137 1837562
CQUAD4      1226 7764200 1837171 1835823    1168    1152
CQUAD4      1227 7764200 1837229    1142    1140 1837242
CQUAD4      1228 7764200 1837221    1134 1837233    1142
CQUAD4      1229 7764200    1178    1139    1183    1200
CQUAD4      1230 7764200    1150    1177 1835839 1836818
CQUAD4      1231 7764200 1837616    1187    1188 1837588
CQUAD4      1232 7764200    1149    1160 1837598 1837592
CQUAD4      1233 7764200 1837613 1837590 1837587 1837611
CQUAD4      1234 7764200    1172    1211 1837191 1837187
CQUAD4      1235 7764200 1836205    1131 1836214    1151
CQUAD4      1236 7764200 1836200    1153    1151 1836209
CQUAD4      1237 7764200 1836197    1153    1154 1836188
CQUAD4      1238 7764200 1836183    1155    1154 1836192
CQUAD4      1239 7764200 1836179    1155    1156 1836172
CQUAD4      1243 7764200 1835772    1157    1156 1836175
CQUAD4      1244 7764200 1836169    1158    1157 1835772
CQUAD4      1245 7764200 1836110    1135    1159 1837341
CQUAD4      1246 7764200 1837339    1169 1836098    1204
$ ... 31 like lines cut
CTRIA3      1292 7764200    1186    1187 1837339
CQUAD4      1300 7764200 1835841 1836819 1835839    1203
CQUAD4      1302 7764200 1836211    1170    1196    1197
CQUAD4      1303 7764200 1837179    1172 1837187 1837183
CQUAD4      1304 7764200 1835835 1836819 1835841    1148
CQUAD4      1305 7764200 1837195 1837205 1837197 1837192
CQUAD4      1306 7764200    1144    1143 1837223    1202
CQUAD4      1307 7764200    1147    1163    1164    1198
CTRIA3      6873 7760001 1833463 1833482 1833445
CQUAD4      6874 7760001 1834252    6133    6135    6134
CQUAD4      6885 7760001 1832999    6148    6140 1832995
CQUAD4      6887 7760001 1833438    6134    6135 1833452
CQUAD4      6888 7760001    6149     762 1833046 1833045
CQUAD4      6890 7760001 1833609 1833628 1833620 1833600
CQUAD4      6892 7760001 1833621 1833637 1833633 1833615
CQUAD4      6894 7760001 1833494 1833463     772 1833504
CQUAD4      6895 7760001 1833619 1833648 1833643 1833629
CQUAD4      6898 7760001 1833632 1833645 1833653 1833627
CQUAD4      6899 7760001 1833649 1833650 1833660 1833661
CQUAD4      6900 7760001 1833650 1832662 1832666 1833660
CQUAD4      6901 7760001 1832662 1832667 1832536 1832666
CQUAD4      6902 7760001 1833574 1833559 1833582 1833595
CQUAD4      6907 7760001 1832626 1832625    6155 1832989
CQUAD4      6909 7760001 1833556 1833578    6152 1833548
CQUAD4      6911 7760001 1832677    8077 1832625 1832626
CQUAD4      6914 7760001 1833539 1833561 1833553 1833530
CQUAD4      6921 7760001 1833520 1833544 1833535 1833509
CQUAD4      6922 7760001 1833467    6151 1833438 1833452
CQUAD4      6927 7760001    6153    6151 1833467 1833482
CQUAD4      6929 7760001 1833487 1833498 1833526 1833515
CTRIA3      7348 7675200    6610    6576    6561
CTRIA3      7349 7675200    6565  533153    6632
CQUAD4      7350 7675200    6565    6603    6572    6618
CTRIA3      7351 7675200    6574  534450  534451
CQUAD4      7352 7675200  530583    6576    6610    6567
CQUAD4      7353 7675200    6625  532903  536257  536258
CQUAD4      7354 7675200  530583    6564  534750  534756
CQUAD4      7355 7675200    6658  532944  532945  532889
CQUAD4      7356 7675200  536263  533184    6588  535800
CQUAD4      7357 7675200  533164    6560    6562  532945
CQUAD4      7358 7675200  535798    6646    6604    6636
CQUAD4      7359 7675200  534561  533213    6616  534452
CQUAD4      7360 7675200    6640  533171    6613    6621
CQUAD4      7361 7675200    6607  533160    6594    6567
CQUAD4      7362 7675200  536255  536256  532897  532937
CQUAD4      7363 7675200    6576  530836  532946    6561
CQUAD4      7364 7675200    6597    6599    6574  534451
CQUAD4      7365 7675200    6622    6624  536260  536261
CQUAD4      7366 7675200  530836    6576  530583  534756
CQUAD4      7367 7675200    6607    6567    6610    6563
CTRIA3      7368 7675200    6597    6585    6599
CQUAD4      7369 7675200    6607    6603  533155  533160
CQUAD4      7370 7675200    6624    6598    6619    6620
CQUAD4      7371 7675200  533193    6665    6637  533197
CTRIA3      7372 7675200    6654    6621    6591
CQUAD4      7373 7675200  532887    6642    6655  532886
CTRIA3      7374 7675200    6595    6653  533177
CQUAD4      7375 7675200    6619    6670    6595    6620
CQUAD4      7376 7675200    6626    6573    6591    6621
CQUAD4      7377 7675200    6603    6607    6563    6572
CQUAD4      7378 7675200    6620    6568  536260    6624
CQUAD4      7379 7675200    6603    6565    6632  533155
CQUAD4      7380 7675200    6642  532887    6660    6578
CQUAD4      7381 7675200  533147    6628    6667    6668
CQUAD4      7382 7675200    6633    6577    6612    6666
CQUAD4      7383 7675200    6642    6578    6626    6652
CQUAD4      7384 7675200    6598    6652    6613    6619
CQUAD4      7385 7675200    6662    6656  533053    6647
CQUAD4      7386 7675200    6628    6633    6666    6667
CQUAD4      7387 7675200    6629  532889  532890  535803
CQUAD4      7388 7675200  533202    6585    6597    6616
CQUAD4      7389 7675200    6640    6621    6654    6630
CTRIA3      7390 7675200    6664  536262  535800
CQUAD4      7391 7675200  532897  536256  532885    6643
CQUAD4      7392 7675200    6649  532900    6663    6669
CQUAD4      7393 7675200  533051    6656    6662  533052
CTRIA3      7394 7675200    6661  535803  532888
CQUAD4      7395 7675200    6667    6635    6639    6668
CQUAD4      7396 7675200  532889    6566  535804    6658
CQUAD4      7397 7675200    6622    6664  532886    6655
CQUAD4      7398 7675200    6571    6612    6615    6606
CQUAD4      7399 7675200    6572    6563    6560  533164
CQUAD4      7400 7675200    6590    6573    6626    6578
CQUAD4      7401 7675200    6651    6590    6578    6660
CQUAD4      7402 7675200    6647  533053    6657  535919
CTRIA3      7403 7675200    6594    6575    6564
CQUAD4      7404 7675200  535921  535922    6641  533141
CQUAD4      7405 7675200  536270  536271  533148    6571
CQUAD4      7406 7675200    6634  533055  533161    6617
CQUAD4      7407 7675200  536268    6657    6631  536267
CQUAD4      7408 7675200    6606    6615    6647  535919
CQUAD4      7409 7675200    6663  532900  532938    6592
CTRIA3      7410 7675200    6596    6570    6638
CTRIA3      7411 7675200    6570    6623    6650
CQUAD4      7412 7675200    6604    6583    6602    6636
CQUAD4      7413 7675200  536266  536267    6631    6614
CQUAD4      7414 7675200    6643  536257  532903  535798
CQUAD4      7415 7675200    6662  533050  533049  533052
CQUAD4      7416 7675200    6592    6609    6659    6663
CQUAD4      7417 7675200    6600    6601  533147    6668
CQUAD4      7418 7675200    6581  532951  532950    6601
CQUAD4      7419 7675200    6589    6653    6648    6623
CQUAD4      7420 7675200    6589    6623    6586    6584
CQUAD4      7421 7675200    6605    6581    6601    6600
CQUAD4      7422 7675200  535922    6644    6645    6641
CQUAD4      7423 7675200    6570    6596    6593    6569
CQUAD4      7424 7675200    6609    6592    6574    6599
CQUAD4      7425 7675200    6635    6667    6666  533148
CQUAD4      7426 7675200    6628  534570  533152    6633
CQUAD4      7427 7675200    6646    6611    6659    6604
CTRIA3      7428 7675200    6601  532950  536166
CQUAD4      7429 7675200  533171    6640    6638    6650
CQUAD4      7430 7675200    6608    6639  530570  536272
CQUAD4      7431 7675200    6587  533141    6641    6605
CQUAD4      7432 7675200  533160    6627    6617    6594
CQUAD4      7433 7675200    6611    6669    6663    6659
CTRIA3      7434 7675200    6630  530660  533179
CQUAD4      7435 7675200    6655    6642    6652    6598
CQUAD4      7436 7675200    6560    6561  532946    6562
CQUAD4      7437 7675200    6569    6593    6649    6669
CQUAD4      7438 7675200  536273    6587    6608  536272
CQUAD4      7439 7675200    6609    6599    6585    6583
CQUAD4      7440 7675200    6639    6608    6600    6668
CQUAD4      7441 7675200    6617    6627    6579    6634
CQUAD4      7442 7675200    6669    6611    6586    6569
CQUAD4      7443 7675200    6629    6651    6660    6566
CQUAD4      7444 7675200  536268  535805  535919    6657
CQUAD4      7445 7675200    6587    6605    6600    6608
CQUAD4      7446 7675200  532890    6562  532946  532891
CQUAD4      7447 7675200    6560    6563    6610    6561
CQUAD4      7448 7675200  533053    6579    6631    6657
CQUAD4      7449 7675200    6574    6592  532938  534450
CTRIA3      7450 7675200    6629    6566  532889
CQUAD4      7451 7675200  532897    6636    6602  532937
CQUAD4      7452 7675200  535804    6566    6660  532887
CQUAD4      7453 7675200  536269    6606  535919  535805
CQUAD4      7454 7675200    6594    6617  533161    6575
CQUAD4      7455 7675200    6645    6581    6605    6641
CQUAD4      7456 7675200  533160  533155    6614    6627
CTRIA3      7457 7675200  533177  536259  533166
CQUAD4      7458 7675200    6653    6589    6625  533177
CQUAD4      7459 7675200    6589    6584  532903    6625
CQUAD4      7460 7675200    6656    6634    6579  533053
CQUAD4      7461 7675200  533167    6595  533177  533166
CQUAD4      7462 7675200  533179  532934    6596    6638
CQUAD4      7463 7675200  533171    6670    6619    6613
CQUAD4      7464 7675200    6598    6624    6622    6655
CQUAD4      7465 7675200  533167    6568    6620    6595
CQUAD4      7466 7675200    6670  533171    6650    6648
CQUAD4      7467 7675200    6615    6580    6662    6647
CQUAD4      7468 7675200    6623    6570    6569    6586
CQUAD4      7469 7675200    6585    6637    6602    6583
CTRIA3      7470 7675200  530836  532891  532946
CTRIA3      7471 7675200    6570    6650    6638
CQUAD4      7472 7675200  533157  533156    6618  533163
CQUAD4      7473 7675200    6584    6586    6611    6646
CQUAD4      7474 7675200  536273  536274  533141    6587
CQUAD4      7475 7675200    6659    6609    6583    6604
CQUAD4      7476 7675200  532903    6584    6646  535798
CTRIA3      7477 7675200    6582  532942  534746
CQUAD4      7478 7675200  533051  533055    6634    6656
CQUAD4      7479 7675200  533147    6601  536166  534567
CQUAD4      7480 7675200    6666    6612    6571  533148
CTRIA3      7481 7675200  533050    6662    6580
CQUAD4      7482 7675200    6579    6627    6614    6631
CQUAD4      7483 7675200    6582    6590    6651    6661
CQUAD4      7484 7675200  536270    6571    6606  536269
CQUAD4      7485 7675200    6612    6577    6580    6615
CQUAD4      7486 7675200  534746    6573    6590    6582
CQUAD4      8735 7760001    8075 1832679    8076    8079
CTRIA3      8736 7760001 1832551 1832589 1832680
CTRIA3      8737 7760001    8076 1832717 1832669
CQUAD4      8739 7760001 1832659 1832665 1832538    8078
CTRIA3      8740 7760001    8079 1832665 1832661
CTRIA3      8741 7760001 1834321 1832582 1832710
CQUAD4      8742 7760001    8078 1832538    8080 1832667
CQUAD4      8743 7760001 1832677    8083    8084    8077
CQUAD4      8744 7760001    8083    8081    8080    8084
CQUAD4      8745 7760001 1832669    8082    8079    8076
CQUAD4      8746 7760001    8082 1832538 1832665    8079
CQUAD4      8747 7760001    8077    8084    8082 1832669
$HMCOMP ID               7763200 7763200       4
CQUAD4    444718 7763200  520071  520244  519618  520134
CQUAD4    444719 7763200  520348  520710  520595  520171
CQUAD4    444720 7763200  520646  520869  520119  520345
CQUAD4    444721 7763200  520810  520811  520639  520638
CQUAD4    444722 7763200  519911  519606  519605  519899
CQUAD4    444723 7763200  513057  513058  519603  519607
CQUAD4    444724 7763200  519931  519602  519609  519943
CQUAD4    444725 7763200  519943  519609  519601  519955
CQUAD4    444726 7763200  519607  519646  519608  519645
CQUAD4    444727 7763200  519919  519575  519602  519931
CQUAD4    444728 7763200  519968  519570  519566  519978
CQUAD4    444729 7763200  519909  519567  519575  519919
CQUAD4    444730 7763200  519955  519601  519570  519968
CQUAD4    444731 7763200  520686  520200  520672  519981
CQUAD4    444732 7763200  512956  513105  513106  513003
CQUAD4    444733 7763200  513002  513155  513107  513001
CQUAD4    444734 7763200  513001  513107  513108  513000
CQUAD4    444735 7763200  512910  512809  512808  512909
CQUAD4    444736 7763200  520610  520495  520542  519815
CQUAD4    444737 7763200  520314  520650  520821  520822
$ ... 1590 like lines cut
$HMCOMP ID               7763200 7763200       4
CTRIA3    448259 7763200  520453  520248  520619
CTRIA3    448260 7763200  520877  520537  520540
CTRIA3    448261 7763200  519953  519981  520671
CTRIA3    448262 7763200  520700  520120  519773
CTRIA3    448263 7763200  520691  519696  520131
CTRIA3    448264 7763200  520869  520646  520424
CTRIA3    448265 7763200  520091  520162  520074
$HMCOMP ID               7760001 7760001       4
CQUAD4   1246644 7760001   23718 1834973 1834961 1834964
CQUAD4   1246645 7760001  863518 1834972 1834973   23718
CQUAD4   1246646 7760001 1834972  863518 1834970 1834971
CQUAD4   1246647 7760001 1834963 1834962 1834938 1834969
CQUAD4   1246648 7760001 1834964 1834961 1834962 1834963
CQUAD4   1246649 7760001 1834946 1834947 1834959 1834960
CQUAD4   1246650 7760001 1834968 1834974 1834940 1834942
CQUAD4   1246651 7760001 1834960 1834965 1834945 1834946
CQUAD4   1246652 7760001 1834158 1834164 1834952 1834954
CQUAD4   1246653 7760001 1733199 1733212 1733202 1733197
CQUAD4   1246654 7760001 1834942 1834945 1834965 1834968
CQUAD4   1246655 7760001 1834974 1834969 1834938 1834940
CQUAD4   1246656 7760001 1834198 1834203 1834967 1834966
CQUAD4   1246657 7760001 1834194 1834198 1834966 1834937
CQUAD4   1246658 7760001 1834185 1834194 1834937 1834927
CQUAD4   1246659 7760001 1834191 1834185 1834927 1834926
CQUAD4   1246660 7760001 1834909 1733202 1733212 1834955
CQUAD4   1246661 7760001 1733195 1733189 1733204 1733191
CQUAD4   1246662 7760001 1834907 1733194 1733200 1834904
CQUAD4   1246663 7760001 1733159 1733194 1733212 1733199
$ ... 975 like lines cut
CTRIA3   1247672 7760001 1833619 1833629 1833613
CQUAD4   1247674 7760001 1833610 1833616 1833632 1833627
CQUAD4   1247675 7760001 1833609 1833615 1833633 1833628
CQUAD4   1247676 7760001 1833623 1832534 1833606 1833622
CQUAD4   1247678 7760001 1833629 1833621 1833604 1833613
CQUAD4   1247680 7760001 1833619 1833601 1833610 1833627
CQUAD4   1247682 7760001 1833608 1833626 1833616 1833599
CQUAD4   1247684 7760001 1833621 1833615 1833597 1833604
CQUAD4   1247685 7760001 1833623 1833608 1833589 1833607
CQUAD4   1247687 7760001 1833613 1833594 1833601 1833619
CQUAD4   1247688 7760001 1833593 1833600 1833620 1833614
CQUAD4   1247689 7760001 1833599 1833616 1833610 1833592
CQUAD4   1247691 7760001 1833615 1833609 1833590 1833597
CQUAD4   1247693 7760001 1832546 1833606 1832534 1833586
CQUAD4   1247694 7760001 1833604 1833585 1833594 1833613
CQUAD4   1247695 7760001 1833593 1833614 1833605 1833584
CQUAD4   1247696 7760001 1833592 1833610 1833601 1833583
CQUAD4   1247698 7760001 1833609 1833600 1833581 1833590
CQUAD4   1247699 7760001 1833599 1833580 1833589 1833608
CQUAD4   1247701 7760001 1833589 1833568 1832512 1833607
CQUAD4   1247702 7760001 1833597 1833577 1833585 1833604
$ ... 24 like lines cut
CTRIA3   1247734 7760001 1833574 1833565 1833542
CQUAD4   1247735 7760001 1833564 1833541 1833551 1833573
CQUAD4   1247736 7760001 1833563 1833540 1833549 1833572
CQUAD4   1247737 7760001    6152 1833561 1833539 1833548
CQUAD4   1247738 7760001 1834754 1834755 1833568 1833558
CQUAD4   1247739 7760001 1833547 1833569 1833560 1833538
CQUAD4   1247740 7760001 1833567 1833559 1833537 1833546
CQUAD4   1247742 7760001 1833557 1833534 1833543 1833566
CQUAD4   1247743 7760001 1833533 1833542 1833565 1833556
CQUAD4   1247744 7760001 1833555 1833532 1833541 1833564
CQUAD4   1247745 7760001 1833552 1833531 1833540 1833563
CQUAD4   1247747 7760001 1833538 1833560 1833551 1833529
CQUAD4   1247748 7760001 1833549 1834753 1834754 1833558
CQUAD4   1247749 7760001 1833559 1833574 1833528 1833537
CQUAD4   1247751 7760001 1833547 1833525 1833534 1833557
CQUAD4   1247752 7760001 1833524 1833533 1833556 1833548
CQUAD4   1247753 7760001 1833546 1833522 1833532 1833555
CQUAD4   1247754 7760001 1833543 1833521 1833531 1833552
CQUAD4   1247755 7760001 1833553 1833544 1833520 1833530
CQUAD4   1247756 7760001 1833529 1833551 1833541 1833519
CQUAD4   1247757 7760001 1833540 1834752 1834753 1833549
$ ... 435 like lines cut
CTRIA3   1248225 7760001 1832551 1832680 1832982
CQUAD4   1248226 7760001 1832703 1832761 1832760 1832678
CQUAD4   1248227 7760001 1832761 1832703 1832702 1832759
CQUAD4   1248228 7760001 1832701 1832758 1832759 1832702
CQUAD4   1248229 7760001 1832700 1832757 1832758 1832701
CQUAD4   1248230 7760001 1832757 1832700 1832696 1832755
CQUAD4   1248231 7760001 1832695 1832753 1832755 1832696
CQUAD4   1248232 7760001 1832753 1832695 1832694 1832751
CQUAD4   1248233 7760001 1832693 1832749 1832751 1832694
CQUAD4   1248234 7760001 1832749 1832693 1832692 1832747
CQUAD4   1248235 7760001 1832691 1832746 1832747 1832692
CQUAD4   1248236 7760001 1832746 1832691 1832690 1832743
CQUAD4   1248237 7760001 1832689 1832741 1832743 1832690
CQUAD4   1248238 7760001 1832739 1832741 1832689 1832688
CQUAD4   1248239 7760001 1832737 1832739 1832688 1832687
CQUAD4   1248240 7760001 1832736 1832737 1832687 1832686
CQUAD4   1248241 7760001 1832732 1832736 1832686 1832685
CQUAD4   1248242 7760001 1832730 1832732 1832685 1832684
CQUAD4   1248243 7760001 1832727 1832730 1832684 1832683
CQUAD4   1248244 7760001 1832551 1832982 1832981 1832679
CQUAD4   1248251 7760001    8081 1832536 1832667    8080
$ ... 171 like lines cut
$HMCOMP ID               7760001 7760001       4
CTRIA3   1248439 7760001 1733201 1834948 1834900
CTRIA3   1248440 7760001 1834907 1834904 1834903
CTRIA3   1248441 7760001 1733201 1834900 1733200
CTRIA3   1248442 7760001 1733200 1834900 1834904
CTRIA3   1248443 7760001 1834960 1834202 1834965
CTRIA3   1248444 7760001 1834907 1834903 1834955
CTRIA3   1248445 7760001   23718 1834964  863517
CTRIA3   1248446 7760001   23735 1834780   23717
CTRIA3   1248447 7760001   23717 1834780 1834778
CTRIA3   1248448 7760001  863518   23740 1834970
CTRIA3   1248449 7760001   23719 1834782 1834784
CTRIA3   1248450 7760001 1834829  863554 1834781
CTRIA3   1248451 7760001 1834777   23716 1834826
CTRIA3   1248452 7760001  863517 1834964 1834826
CTRIA3   1248453 7760001 1834784 1834786 1834787
CTRIA3   1248454 7760001 1834827 1834777 1834825
CTRIA3   1248455 7760001  863517 1834826   23716
CTRIA3   1248456 7760001 1834789 1834769 1834805
CTRIA3   1248457 7760001 1834092 1834085 1834099
CTRIA3   1248458 7760001 1833687 1833697 1833701
$ ... 5 like lines cut
CQUAD4   1248466 7760001    8075 1832564 1832551 1832679
CTRIA3   1248469 7760001 1832571 1832646 1832647
CTRIA3   1248470 7760001 1834001 1832640 1832642
CTRIA3   1248471 7760001 1832591 1832575 1832624
CTRIA3   1248473 7760001 1832607 1832606 1832605
CTRIA3   1248474 7760001 1834767 1834766 1832544
CTRIA3   1248475 7760001 1832621 1832590 1832573
CTRIA3   1248476 7760001 1832563 1834326 1834344
CTRIA3   1248477 7760001 1832723 1832591 1832719
CTRIA3   1248478 7760001 1832586 1832744 1832742
CQUAD4   1248479 7760001 1832715 1832716 1832720 1832564
CTRIA3   1248480 7760001 1832758 1832757 1832583
CTRIA3   1248481 7760001 1832725 1832575 1832574
CQUAD4   1248482 7760001 1832717    8076 1832679 1832981
CTRIA3   1248483 7760001 1832719 1834317 1832721
CTRIA3   1248484 7760001 1832709 1832573 1832581
CTRIA3   1248485 7760001 1832590 1832716 1832582
CTRIA3   1248486 7760001 1834243 1832714 1832719
CTRIA3   1248488 7760001 1834632 1834633 1832544
CTRIA3   1248489 7760001 1834632 1832544 1834766
CTRIA3   1248490 7760001 1834633 1834564 1832544
CTRIA3   1248491 7760001 1832534 1833623 1833607
CTRIA3   1248492 7760001 1833771 1832545 1833764
CTRIA3   1248493 7760001 1834767 1832544 1834564
CTRIA3   1248494 7760001 1833817 1832541 1833807
CTRIA3   1248495 7760001 1832540 1833718 1833711
CQUAD4   1248496 7760001 1832660 1832657 1832659    8078
CTRIA3   1248497 7760001 1832535 1832613 1832612
$HMCOMP ID               7764200 7764200       4
CQUAD4   1252647 7764200 1730339 1730335 1836269 1836265
CQUAD4   1252648 7764200 1837629   23598   23606  660131
CQUAD4   1252649 7764200 1837492  266886 1837629 1837505
CQUAD4   1252650 7764200 1835878 1730330   23574   23575
CQUAD4   1252651 7764200   23606   23605 1835882  660131
CQUAD4   1252652 7764200   23593   23603  682561  682239
CQUAD4   1252653 7764200   23573  660129  682239  898054
CQUAD4   1252654 7764200 1730327  660130 1836273 1836272
CQUAD4   1252655 7764200 1836256  892817  660124  660120
CQUAD4   1252656 7764200   23582   23605   23606   23578
CQUAD4   1252657 7764200   23610   23593   23594   23577
CQUAD4   1252658 7764200 1730331 1730329  892812  892808
CQUAD4   1252659 7764200   23586  892812  892817   23589
CQUAD4   1252660 7764200   23589  892817  898057   23585
CQUAD4   1252661 7764200   23585  898057   23575   23590
CQUAD4   1252662 7764200   23590   23575   23574   23588
CQUAD4   1252663 7764200   23587  898054  892808   23591
CQUAD4   1252664 7764200   23591  892808  892812   23586
CQUAD4   1252665 7764200   23588   23574   23573   23592
CQUAD4   1252666 7764200   23592   23573  898054   23587
$ ... 317 like lines cut
CTRIA3   1252991 7764200 1837242    1174 1837252
CQUAD4   1252992 7764200 1837236 1837244 1837259 1837254
CQUAD4   1252993 7764200 1837260 1837251 1837235 1837245
CQUAD4   1252994 7764200 1837249 1837234 1837240 1837256
CQUAD4   1252995 7764200 1837239 1837250 1837248 1837233
CQUAD4   1252996 7764200 1837238 1837253 1837247 1837232
CQUAD4   1252997 7764200 1837231 1837242 1837252    1139
CQUAD4   1252998 7764200 1837230 1837236 1837254 1837239
CQUAD4   1252999 7764200    1142 1837233 1837248    1140
CQUAD4   1253000 7764200 1837234 1837249 1837244 1837228
CQUAD4   1253001 7764200 1837251 1837243 1837227 1837235
CQUAD4   1253003 7764200 1837247 1837240 1837225 1837232
CQUAD4   1253004 7764200 1837229 1837242 1837231 1837223
CQUAD4   1253005 7764200 1837244 1837236 1837222 1837228
CQUAD4   1253006 7764200    1134 1837230 1837239 1837233
CQUAD4   1253007 7764200 1837238 1837232 1837220 1837224
CQUAD4   1253008 7764200 1837219 1837225 1837240 1837234
CQUAD4   1253010 7764200 1837224 1837217 1837227 1837243
CQUAD4   1253011 7764200    1142 1837229    1143 1837221
CQUAD4   1253012 7764200 1837236 1837230 1837215 1837222
CQUAD4   1253013 7764200 1837231    1201    1202 1837223
CQUAD4   1253014 7764200 1837213 1837219 1837234 1837228
CQUAD4   1253015 7764200 1837212 1837220 1837232 1837225
CTRIA3   1253016 7764200    1143 1837229 1837223
CQUAD4   1253017 7764200 1837230    1134 1837210 1837215
CQUAD4   1253018 7764200 1837220 1837209 1837217 1837224
CQUAD4   1253019 7764200 1837208 1837213 1837228 1837222
CQUAD4   1253020 7764200 1837225 1837219 1837207 1837212
CQUAD4   1253022 7764200    1143 1837205    1136 1837221
CQUAD4   1253023 7764200    1132 1837208 1837222 1837215
CQUAD4   1253025 7764200 1837220 1837212 1837202 1837209
CQUAD4   1253026 7764200 1837219 1837213 1837201 1837207
CQUAD4   1253027 7764200    1144 1837197 1837205    1143
CQUAD4   1253029 7764200 1837213 1837208 1837198 1837201
CQUAD4   1253031 7764200 1837207 1837196 1837202 1837212
CQUAD4   1253032 7764200 1837195 1837204 1837210    1136
CQUAD4   1253033 7764200 1837204 1837191 1837194    1132
CQUAD4   1253037 7764200 1837190 1837196 1837207 1835786
CQUAD4   1253038 7764200 1837201 1837198 1837189 1835786
CQUAD4   1253040 7764200 1837191 1837204 1837195 1837187
CQUAD4   1253041 7764200 1837186 1837189 1837198 1837194
CQUAD4   1253042 7764200 1835786 1837189 1837185 1837190
CQUAD4   1253045 7764200 1837186 1837194 1837191    1211
CQUAD4   1253046 7764200 1837189 1837186 1837181 1837185
$ ... 751 like lines cut
$HMCOMP ID               7764200 7764200       4
CTRIA3   1253839 7764200   23594  660129  682366
CTRIA3   1253840 7764200  892817  892812  660124
CTRIA3   1253841 7764200 1730326   23575  898057
CTRIA3   1253842 7764200 1730339 1730329 1730335
CTRIA3   1253843 7764200   23598 1837629  266886
CTRIA3   1253844 7764200 1730331  682239  682561
CTRIA3   1253845 7764200 1837504 1837523  660130
CTRIA3   1253846 7764200 1836629 1836617   13375
CTRIA3   1253847 7764200 1836569 1836554   13362
CTRIA3   1253848 7764200   13310   13311 1837350
CTRIA3   1253849 7764200 1836534  358052  358056
CTRIA3   1253850 7764200  358068 1836519  358064
CTRIA3   1253851 7764200 1837254 1837250 1837239
CTRIA3   1253852 7764200 1837224 1837243 1837238
CTRIA3   1253853 7764200 1836289 1835687 1835676
CTRIA3   1253854 7764200 1835701 1836289 1835795
CTRIA3   1253855 7764200 1835813 1836778 1836802
CTRIA3   1253856 7764200 1836765 1836757 1836770
CTRIA3   1253857 7764200 1836660 1836649 1836665
CTRIA3   1253858 7764200 1836613 1836574 1836620
$ ... 15 like lines cut
$HMCOMP ID               7764600 7764600       4
CQUAD4   1255039 7764600  864454  865115  864457  864453
CQUAD4   1255040 7764600  864462  864463  864508  864505
CQUAD4   1255041 7764600  864508  864509  864503  864505
CQUAD4   1255042 7764600  864509  864512  864501  864503
CQUAD4   1255043 7764600  864510  864511  864497  864498
CQUAD4   1255044 7764600  864511  864516  864496  864497
CQUAD4   1255045 7764600  864512  864513  864499  864501
CQUAD4   1255046 7764600  864513  864510  864498  864499
CQUAD4   1255047 7764600  864514  864515  864494  864495
CQUAD4   1255048 7764600  864515  864517  864493  864494
CQUAD4   1255049 7764600  864516  864514  864495  864496
CQUAD4   1255050 7764600  864517  864518  864492  864493
CQUAD4   1255051 7764600  864518  864519  864491  864492
CQUAD4   1255052 7764600  864519  864520  864489  864491
CQUAD4   1255053 7764600  864520  864521  864487  864489
CQUAD4   1255054 7764600  864485  864487  864521  864484
CQUAD4   1255055 7764600  864464  864465  864508  864463
CQUAD4   1255056 7764600  864480  864482  864484  864521
CQUAD4   1255057 7764600  864480  864521  864520  864479
CQUAD4   1255058 7764600  864476  864518  864517  864474
$ ... 570 like lines cut
$HMCOMP ID               7764600 7764600       4
CTRIA3   1255642 7764600  864487  864485  864486
CTRIA3   1255643 7764600  864652  864574  864573
CTRIA3   1255644 7764600  882831  882836  882849
CTRIA3   1255645 7764600  882850  882842  882859
CTRIA3   1255646 7764600  903211  882847  882844
CTRIA3   1255647 7764600  882880  882888  882874
CTRIA3   1255648 7764600  882913  882914  882915
CTRIA3   1255649 7764600  882921  899493  903242
CTRIA3   1255650 7764600  882925  882922  882917
CTRIA3   1255651 7764600  864620  882933  864523
CTRIA3   1255652 7764600  889577  889583  889580
CTRIA3   1255653 7764600  889598  889614  889618
CTRIA3   1255654 7764600  889603  889616  889599
CTRIA3   1255655 7764600  903207  889617  889609
CTRIA3   1255656 7764600  889624  889626  889612
CTRIA3   1255657 7764600  889643  889632  889619
CTRIA3   1255658 7764600  889636  889652  889657
CTRIA3   1255659 7764600  889666  889650  889651
CTRIA3   1255660 7764600  889669  889676  889654
CTRIA3   1255661 7764600  903209  864486  864665
$ ... 26 like lines cut
$HMCOMP ID               7675200 7675200       4
CQUAD4   3805846 7675200  533618  535572  533612  533594
CQUAD4   3805847 7675200  533594  533602  533505  533618
CQUAD4   3805848 7675200  533590  533614  533671  530240
CQUAD4   3805849 7675200  533548  534402  534400  534401
CQUAD4   3805850 7675200  529236  529064  529061  529235
CQUAD4   3805851 7675200  533512  530133  533510  533738
CQUAD4   3805852 7675200  533602  533601  535577  535580
CQUAD4   3805853 7675200  530130  533593  533541  533594
CQUAD4   3805854 7675200  535610  535606  533581  533458
CQUAD4   3805855 7675200  533567  536063  536062  533595
CQUAD4   3805856 7675200  536027  536048  536047  533556
CQUAD4   3805857 7675200  535728  533585  533586  534059
CQUAD4   3805858 7675200  535502  534138  534145  535501
CQUAD4   3805859 7675200  533559  534313  534309  533558
CQUAD4   3805860 7675200  530251  535287  535491  535492
CQUAD4   3805861 7675200  533503  533659  530243  533660
CQUAD4   3805862 7675200  535727  530195  535612  535726
CQUAD4   3805863 7675200  533600  535337  533622  533580
CQUAD4   3805864 7675200  534326  534371  534370  534328
CQUAD4   3805865 7675200  535807  536159  536158  535806
$ ... 3769 like lines cut
CTRIA3   3809689 7675200    6623    6648    6650
CQUAD4   3809691 7675200  536258  536259  533177    6625
CQUAD4   3809693 7675200  532931  535763  534438  534439
CQUAD4   3809694 7675200  534437  534438  532930  532929
CQUAD4   3809695 7675200  534436  534437  532929  532928
CQUAD4   3809696 7675200  534439  534440  532927  532931
CQUAD4   3809697 7675200  532927  534440  534441  532926
CQUAD4   3809698 7675200  532925  532926  534441  532924
CQUAD4   3809699 7675200  532924  532923  532922  532925
CQUAD4   3809700 7675200  532923  532921  532920  532922
CQUAD4   3809701 7675200  532919  532920  532921  532918
CQUAD4   3809702 7675200  532918  536247  536248  532919
CQUAD4   3809703 7675200  533259  534436  532928  532917
CQUAD4   3809704 7675200  532917  532916  533258  533259
CQUAD4   3809705 7675200  533255  533258  532916  532915
CQUAD4   3809706 7675200  533250  533255  532915  532914
CQUAD4   3809707 7675200  532914  536251  536252  533250
CQUAD4   3809708 7675200  532931  532927  532926  532913
CQUAD4   3809709 7675200  532912  532911  532916  532917
CQUAD4   3809710 7675200  532911  532910  532915  532916
CQUAD4   3809711 7675200  532910  532909  532914  532915
$ ... 26 like lines cut
CTRIA3   3809752 7675200  536257    6643  532885
CQUAD4   3809756 7675200  535803  532890  532891  532943
CQUAD4   3809757 7675200  535804  532887  532886    6588
CQUAD4   3809758 7675200    6664  535800    6588  532886
CQUAD4   3809759 7675200  532892  535954  532964  532893
CQUAD4   3809760 7675200  532964  532895  532896  532963
CQUAD4   3809761 7675200  535954  532892  533120  535953
CQUAD4   3809762 7675200  535952  536281  532894  535953
CQUAD4   3809763 7675200  532882  532881  532884  532883
CQUAD4   3809764 7675200  532883  532880  532879  532882
CQUAD4   3809765 7675200  532882  532876  532878  532881
CQUAD4   3809766 7675200  534707  534708  532879  532880
CQUAD4   3809767 7675200  532876  532882  532877  532875
CQUAD4   3809768 7675200  532877  532879  534708  534709
CQUAD4   3809769 7675200  530491  532874  532877  534709
CQUAD4   3809770 7675200  532873  532872  532876  532875
CQUAD4   3809771 7675200  532875  532874  532871  532873
CQUAD4   3809772 7675200  532876  532872  532870  532878
CQUAD4   3809773 7675200  532869  532868  532884  532881
CQUAD4   3809774 7675200  532881  532878  532870  532869
CQUAD4   3809775 7675200  532868  532867  532883  532884
$ ... 2553 like lines cut
$HMCOMP ID               7675200 7675200       4
CTRIA3   3812347 7675200  533627  533610  534572
CTRIA3   3812348 7675200  533626  533614  535647
CTRIA3   3812349 7675200  535313  534933  535312
CTRIA3   3812350 7675200  533625  533563  535332
CTRIA3   3812351 7675200  533624  535389  534108
CTRIA3   3812352 7675200  533622  535337  535334
CTRIA3   3812353 7675200  535312  534408  533619
CTRIA3   3812354 7675200  535914  533504  535467
CTRIA3   3812355 7675200  533565  530204  535612
CTRIA3   3812356 7675200  530132  535577  533601
CTRIA3   3812357 7675200  534318  530237  534317
CTRIA3   3812358 7675200  535995  534664  534663
CTRIA3   3812359 7675200  530194  535319  535320
CTRIA3   3812360 7675200  533592  535646  533576
CTRIA3   3812361 7675200  533871  533579  533732
CTRIA3   3812362 7675200  530142  534686  535578
CTRIA3   3812363 7675200  534200  533513  534203
CTRIA3   3812364 7675200  535651  535647  533614
CTRIA3   3812365 7675200  530144  534364  533817
CTRIA3   3812366 7675200  535697  536008  535825
$ ... 170 like lines cut
CQUAD4   3812537 7675200  533115    6644  535922  533113
CTRIA3   3812538 7675200  535251  535255  535250
CTRIA3   3812539 7675200  532888  535803  532943
CTRIA3   3812540 7675200    6649  532935  532900
CTRIA3   3812542 7675200  535763  532930  534438
CTRIA3   3812543 7675200  529122  535284  529163
CTRIA3   3812544 7675200  535340  535880  535208
CTRIA3   3812545 7675200  535182  535663  535228
CTRIA3   3812546 7675200  533531  535625  535621
CTRIA3   3812547 7675200  535125  535124  536090
CTRIA3   3812548 7675200  535123  535118  535120
CTRIA3   3812549 7675200  535104  535093  535111
CTRIA3   3812550 7675200  535048  535056  535057
CTRIA3   3812551 7675200  535032  535028  535029
CTRIA3   3812552 7675200  535018  535533  535534
CTRIA3   3812553 7675200  535015  534999  535013
CTRIA3   3812554 7675200  535017  535014  535347
CTRIA3   3812555 7675200  534999  535009  534991
CTRIA3   3812556 7675200  534982  534995  534974
CTRIA3   3812557 7675200  534989  534988  534997
CTRIA3   3812558 7675200  534979  534988  534989
$ ... 806 like lines cut
CQUAD4   3813382 7675200    6638    6640    6630  533179
CTRIA3   3813383 7675200  529316  529322  529056
CTRIA3   3813384 7675200  530496  529164  529161
CTRIA3   3813385 7675200  532005  532022  532021
CTRIA3   3813386 7675200  530462  529312  529313
CTRIA3   3813387 7675200  530636  531896  530898
CTRIA3   3813388 7675200  530635  531733  530648
CTRIA3   3813389 7675200  534890  530405  534891
CTRIA3   3813390 7675200  530426  535061  530862
CTRIA3   3813391 7675200  530432  529245  529230
CTRIA3   3813392 7675200  530631  532366  532365
CTRIA3   3813393 7675200  530433  530597  529248
CTRIA3   3813394 7675200  530434  529855  529778
CTRIA3   3813395 7675200  529967  529961  530808
CTRIA3   3813396 7675200  529937  530944  530436
CTRIA3   3813397 7675200  534900  530439  529493
CTRIA3   3813398 7675200  529942  530442  529756
CTRIA3   3813399 7675200  531891  530448  531479
CTRIA3   3813400 7675200  529314  530453  529318
CTRIA3   3813401 7675200  530613  531796  530561
CTRIA3   3813402 7675200  528992  530468  528993
$ ... 66 like lines cut
CQUAD4   3922402 7664800   21747   21487   21486   21489
CQUAD4   3922403 7664800  512565  512562   21581  512408
CQUAD4   3922404 7664800  512563  512560   21585  512564
CQUAD4   3922405 7664800  512550  512409  512551   21591
CQUAD4   3922406 7664800   21598   21595  512553  512552
CQUAD4   3922407 7664800  512560  512563  512554   21531
CQUAD4   3922408 7664800   21531  512554  512555  512561
CQUAD4   3922409 7664800  512561  512555  512556   21530
CQUAD4   3922410 7664800   21530  512556  512557   21594
CQUAD4   3922411 7664800  512558   21591   21594  512557
CQUAD4   3922412 7664800   21591  512558  512559   21584
CQUAD4   3922413 7664800  512560   21532   21582   21585
CQUAD4   3922414 7664800   21529   21530   21594   21592
CQUAD4   3922415 7664800   21519  512549   21802   21807
CQUAD4   3922416 7664800  512541   21808   21810  512540
CQUAD4   3922417 7664800  512545  512539  512540   21810
CQUAD4   3922418 7664800  512548   21805  512542  512546
CQUAD4   3922419 7664800  512548  512536   21801   21805
CQUAD4   3922420 7664800  512536  512537   21802   21801
CQUAD4   3922421 7664800  512537  512538   21807   21802
$ ... 889 like lines cut
$HMCOMP ID               7664800 7664800       4
CTRIA3   3923311 7664800  512562   21584   21585
CTRIA3   3923312 7664800  512560   21531   21532
CTRIA3   3923313 7664800   21596   21530   21529
CTRIA3   3923314 7664800  512551  512456   21592
CTRIA3   3923315 7664800  512456  512551  512409
CTRIA3   3923316 7664800  512550  512565  512409
CTRIA3   3923317 7664800   21811   21813   21814
CTRIA3   3923318 7664800   21808  512542   21806
CTRIA3   3923319 7664800  512550   21591   21584
CTRIA3   3923320 7664800   21422   21419   21477
CTRIA3   3923321 7664800   21907   21906  512535
CTRIA3   3923322 7664800  512534  512506  512522
CTRIA3   3923323 7664800   14121   11150   13391
CTRIA3   3923324 7664800   21482   21396   13379
CTRIA3   3923325 7664800   21419   21482   21477
CTRIA3   3923326 7664800  512343  512345  512341
CTRIA3   3923327 7664800  512331  512442  512332
CTRIA3   3923328 7664800  512326  512320  512323
CTRIA3   3923329 7664800   21549  512441  512314
CTRIA3   3923330 7664800  512304  512312  512298
$ ... 12 like lines cut
CQUAD4   3923343 7664800   21544  512567  512440  512439
CTRIA3   3923344 7664800  512433  512432   21544
CTRIA3   3923345 7664800   21420   11396   21405
CTRIA3   3923346 7664800   21577   21575   21912
CTRIA3   3923347 7664800   21571   21576  512360
CTRIA3   3923348 7664800   21564   21552  266875
CTRIA3   3923349 7664800   21512   21904   21899
CTRIA3   3923350 7664800   21516   21574  512335
CTRIA3   3923351 7664800   21517   21925   21919
CTRIA3   3923352 7664800   21477   21478   21422
CTRIA3   3923353 7664800   11392   11131   11390
$HWCOLOR PROP            7664800      25
PSHELL   7664800   21000     1.4   21000      1.   21000 0.83333      0.
$HWCOLOR PROP            7675200      24
PSHELL   7675200   21000     0.7   21000      1.   21000 0.83333      0.
$HWCOLOR PROP            7760001      41
PSHELL   7760001   21000    0.65   21000      1.   21000 0.83333      0.
$HWCOLOR PROP            7763200      49
PSHELL   7763200   21000      1.   21000      1.   21000 0.83333      0.
$HWCOLOR PROP            7764200      53
PSHELL   7764200   21000     1.8   21000      1.   21000 0.83333      0.
$HWCOLOR PROP            7764600      57
PSHELL   7764600   21000     1.4   21000      1.   21000 0.83333      0.
$HWCOLOR MAT               21000       6
MAT1       21000  2.06E8             0.3  7.85-6      0.              0.
$$$$$$$$$$$$$$$$$$$$$$$$$$$$$$$$$$$$$$$$$$$$$$$$$$$$$$$$$$$$$$$$$$$$$$$$$$$$$$$$
$$$$$$$$$$$$$$$$$$$$$$$$$$$$$$$$$$$$$$$$$$$$$$$$$$$$$$$$$$$$$$$$$$$$$$$$$$$$$$$$
